------- InflowWind v3.00.* INPUT FILE -------------------------------------------------------------------------
This is a sample Inflow-Wind input file.
---------------------------------------------------------------------------------------------------------------
True                 Echo           - Echo input data to <RootName>.ech (flag)
  4                  WindType       - switch for wind file type (1=steady; 2=uniform; 3=binary TurbSim FF; 4=binary Bladed-style FF; 5=HAWC format; 6=User defined)
 60.0                 PropogationDir - Direction of wind propogation (meteoroligical rotation from aligned with X (positive rotates towards -Y) -- degrees)
 3                   NWindVel       - Number of points to output the wind velocity (0 to 9)
 0,4,2               WindVxiList    - List of coordinates in the inertial X direction (m)
 0,0,2               WindVyiList    - List of coordinates in the inertial Y direction (m)
 12,14,16            WindVziList    - List of coordinates in the inertial Z direction (m)
================== Parameters for Steady Wind Conditions [used only for WindType = 1] =========================
 10.0                HWindSpeed     - Horizontal windspeed
 90.0                RefHt          - Reference height for horizontal wind speed
  0.14               PLexp          - Power law exponent
================== Parameters for Uniform wind file   [used only for WindType = 2] ============================
""                   Filename       - Filename of time series data for uniform wind field.
 90.0                RefHt          - Reference height for horizontal wind speed
 100.0               RefLength      - Reference length for linear horizontal and vertical sheer
================== Parameters for Binary TurbSim Full-Field files   [used only for WindType = 3] ==============
""                   Filename       - Name of the Full field wind file to use (.bts)
================== Parameters for Binary Bladed-style Full-Field files   [used only for WindType = 4] =========
"data/Test004--BladedFF.Windfile"                   FilenameRoot   - Name of the Full field wind file to use (.wnd, .sum)
 F                   TowerFile      - Have tower file (.twr) [flag]
====================== OUTPUT ==================================================
True          SumPrint     - Print summary data to <RootName>.sum (flag) (currently unused)
              OutList      - The next line(s) contains a list of output parameters.  See OutListParameters.xlsx for a listing of available output channels, (-)
"Wind4VelX,Wind4VelY,Wind4VelZ"     - Wind velocity at point WindVxiList(4),WindVyiList(4),WindVziList(4).  X, Y, and Z direction components.
"Wind1VelX,Wind1VelY,Wind1VelZ"     - Wind velocity at point WindVxiList(1),WindVyiList(1),WindVziList(1).  X, Y, and Z direction components.
"Wind3VelX,Wind3VelY,Wind3VelZ"     - Wind velocity at point WindVxiList(3),WindVyiList(3),WindVziList(3).  X, Y, and Z direction components.
"Wind5VelX,Wind5VelY,Wind5VelZ"     - Wind velocity at point WindVxiList(5),WindVyiList(5),WindVziList(5).  X, Y, and Z direction components.
"Wind6VelX,Wind6VelY,Wind6VelZ"     - Wind velocity at point WindVxiList(6),WindVyiList(6),WindVziList(6).  X, Y, and Z direction components.
"Wind7VelX,Wind7VelY,Wind7VelZ"     - Wind velocity at point WindVxiList(7),WindVyiList(7),WindVziList(7).  X, Y, and Z direction components.
END of input file (the word "END" must appear in the first 3 columns of this last OutList line)
"Wind2VelX,Wind2VelY,Wind2VelZ"     - Wind velocity at point WindVxiList(2),WindVyiList(2),WindVziList(2).  X, Y, and Z direction components.
"Wind8VelX,Wind8VelY,Wind8VelZ"     - Wind velocity at point WindVxiList(8),WindVyiList(8),WindVziList(8).  X, Y, and Z direction components.
"asdlfjk"
"Wind9VelX,Wind9VelY,Wind9VelZ"     - Wind velocity at point WindVxiList(9),WindVyiList(9),WindVziList(9).  X, Y, and Z direction components.
END of input file (the word "END" must appear in the first 3 columns of this last OutList line)
---------------------------------------------------------------------------------------------------------------
