! This hub-height wind-speed file was generated by TurbSim (v1.06.01a-bjj, 18-Oct-2012) on 19-Feb-2013 at 13:03:09.
!
! The requested statistics for this data were:
!    Mean Total Wind Speed =   18.200 m/s
!
!   Time  HorSpd  WndDir  VerSpd  HorShr  VerShr  LnVShr  GstSpd
!  (sec)   (m/s)   (deg)   (m/s)     (-)     (-)     (-)   (m/s)
   0.000   19.53    0.87    0.25   0.000   0.143   0.000    0.00
   0.050   19.78    0.74    0.14   0.000   0.143   0.000    0.00
   0.100   20.10   -1.02    0.58   0.000   0.143   0.000    0.00
   0.150   19.84   -0.80    1.25   0.000   0.143   0.000    0.00
   0.200   19.40    0.15    1.47   0.000   0.143   0.000    0.00
   0.250   18.51   -0.03    1.58   0.000   0.143   0.000    0.00
   0.300   18.55   -0.75    1.15   0.000   0.143   0.000    0.00
   0.350   18.96    0.16    0.82   0.000   0.143   0.000    0.00
   0.400   18.63   -0.28    0.80   0.000   0.143   0.000    0.00
   0.450   18.39    0.35    0.72   0.000   0.143   0.000    0.00
   0.500   18.27   -1.13    0.70   0.000   0.143   0.000    0.00
   0.550   18.69   -0.16    0.32   0.000   0.143   0.000    0.00
   0.600   18.79   -2.99   -0.51   0.000   0.143   0.000    0.00
   0.650   19.57   -1.22   -1.45   0.000   0.143   0.000    0.00
   0.700   19.82   -1.92   -1.48   0.000   0.143   0.000    0.00
   0.750   19.37   -2.64   -1.60   0.000   0.143   0.000    0.00
   0.800   19.20   -4.45   -1.31   0.000   0.143   0.000    0.00
   0.850   18.70   -3.55   -1.10   0.000   0.143   0.000    0.00
   0.900   18.34   -3.06   -1.33   0.000   0.143   0.000    0.00
   0.950   18.59   -4.14   -1.75   0.000   0.143   0.000    0.00
   1.000   18.77   -2.46   -1.40   0.000   0.143   0.000    0.00
   1.050   18.86   -2.82   -0.32   0.000   0.143   0.000    0.00
   1.100   18.71   -3.06   -0.61   0.000   0.143   0.000    0.00
   1.150   19.32   -2.34   -0.30   0.000   0.143   0.000    0.00
   1.200   19.71   -2.90   -0.49   0.000   0.143   0.000    0.00
   1.250   19.61   -2.99   -1.27   0.000   0.143   0.000    0.00
   1.300   19.53   -3.19   -0.88   0.000   0.143   0.000    0.00
   1.350   19.78   -3.55   -1.15   0.000   0.143   0.000    0.00
   1.400   19.77   -1.91   -1.29   0.000   0.143   0.000    0.00
   1.450   19.56   -0.80   -1.30   0.000   0.143   0.000    0.00
   1.500   19.72   -2.56   -1.29   0.000   0.143   0.000    0.00
   1.550   19.42   -2.42   -1.17   0.000   0.143   0.000    0.00
   1.600   19.52   -2.37   -0.83   0.000   0.143   0.000    0.00
   1.650   19.18   -1.66   -1.44   0.000   0.143   0.000    0.00
   1.700   18.87   -0.87   -1.01   0.000   0.143   0.000    0.00
   1.750   18.91    0.45   -0.93   0.000   0.143   0.000    0.00
   1.800   19.03   -0.79   -0.61   0.000   0.143   0.000    0.00
   1.850   19.06   -0.48   -0.65   0.000   0.143   0.000    0.00
   1.900   19.16   -1.35   -1.35   0.000   0.143   0.000    0.00
   1.950   19.27   -0.13   -0.90   0.000   0.143   0.000    0.00
   2.000   19.44    2.69   -1.21   0.000   0.143   0.000    0.00
   2.050   19.75    2.89   -1.69   0.000   0.143   0.000    0.00
   2.100   20.06    1.81   -1.80   0.000   0.143   0.000    0.00
   2.150   19.49    3.16   -1.72   0.000   0.143   0.000    0.00
   2.200   19.26    0.36   -1.24   0.000   0.143   0.000    0.00
   2.250   18.92    1.71   -1.42   0.000   0.143   0.000    0.00
   2.300   18.62    0.01   -1.10   0.000   0.143   0.000    0.00
   2.350   18.68   -1.49   -0.18   0.000   0.143   0.000    0.00
   2.400   19.45    0.13    0.10   0.000   0.143   0.000    0.00
   2.450   20.13   -1.56    0.62   0.000   0.143   0.000    0.00
   2.500   19.52   -2.95    1.00   0.000   0.143   0.000    0.00
   2.550   19.63   -4.23    0.53   0.000   0.143   0.000    0.00
   2.600   20.00   -4.67    0.46   0.000   0.143   0.000    0.00
   2.650   19.92   -4.99    0.75   0.000   0.143   0.000    0.00
   2.700   19.73   -4.64    0.86   0.000   0.143   0.000    0.00
   2.750   19.84   -4.08    0.82   0.000   0.143   0.000    0.00
   2.800   19.48   -4.06    0.78   0.000   0.143   0.000    0.00
   2.850   19.64   -4.14    1.08   0.000   0.143   0.000    0.00
   2.900   19.53   -4.20    1.43   0.000   0.143   0.000    0.00
   2.950   19.56   -1.97    2.00   0.000   0.143   0.000    0.00
   3.000   20.17   -1.90    1.52   0.000   0.143   0.000    0.00
   3.050   19.83   -2.11    1.44   0.000   0.143   0.000    0.00
   3.100   19.91   -2.57    2.41   0.000   0.143   0.000    0.00
   3.150   19.92   -2.16    2.62   0.000   0.143   0.000    0.00
   3.200   20.75   -1.05    1.88   0.000   0.143   0.000    0.00
   3.250   20.64   -1.11    1.63   0.000   0.143   0.000    0.00
   3.300   20.97    0.36    1.62   0.000   0.143   0.000    0.00
   3.350   21.41    0.03    1.29   0.000   0.143   0.000    0.00
   3.400   21.39    1.04    1.32   0.000   0.143   0.000    0.00
   3.450   21.16    1.04    1.30   0.000   0.143   0.000    0.00
   3.500   21.06    2.18    1.42   0.000   0.143   0.000    0.00
   3.550   21.37   -0.81    1.00   0.000   0.143   0.000    0.00
   3.600   21.32   -0.76    0.96   0.000   0.143   0.000    0.00
   3.650   21.08   -2.57    0.39   0.000   0.143   0.000    0.00
   3.700   20.84   -1.64    0.95   0.000   0.143   0.000    0.00
   3.750   21.07   -0.20    0.07   0.000   0.143   0.000    0.00
   3.800   21.66   -0.89   -0.20   0.000   0.143   0.000    0.00
   3.850   21.27   -1.03   -0.52   0.000   0.143   0.000    0.00
   3.900   21.60   -1.25   -0.89   0.000   0.143   0.000    0.00
   3.950   21.73   -1.48   -0.25   0.000   0.143   0.000    0.00
   4.000   21.41   -1.37   -0.03   0.000   0.143   0.000    0.00
   4.050   21.38   -2.94   -0.10   0.000   0.143   0.000    0.00
   4.100   21.37   -3.81   -0.36   0.000   0.143   0.000    0.00
   4.150   21.20   -3.58    0.30   0.000   0.143   0.000    0.00
   4.200   21.21   -3.07    0.50   0.000   0.143   0.000    0.00
   4.250   20.96   -2.22    0.25   0.000   0.143   0.000    0.00
   4.300   20.85   -2.43    0.06   0.000   0.143   0.000    0.00
   4.350   21.27   -2.97   -0.12   0.000   0.143   0.000    0.00
   4.400   21.31   -1.57    0.69   0.000   0.143   0.000    0.00
   4.450   20.69   -1.14    0.50   0.000   0.143   0.000    0.00
   4.500   21.27   -1.14    1.29   0.000   0.143   0.000    0.00
   4.550   21.04    0.21    1.05   0.000   0.143   0.000    0.00
   4.600   20.96   -1.57    0.41   0.000   0.143   0.000    0.00
   4.650   20.39   -4.36    0.02   0.000   0.143   0.000    0.00
   4.700   20.52   -4.31    0.40   0.000   0.143   0.000    0.00
   4.750   19.99   -2.84    0.64   0.000   0.143   0.000    0.00
   4.800   20.14   -3.74    0.78   0.000   0.143   0.000    0.00
   4.850   20.18   -3.82    0.96   0.000   0.143   0.000    0.00
   4.900   20.16   -5.51    0.70   0.000   0.143   0.000    0.00
   4.950   20.34   -6.13    1.03   0.000   0.143   0.000    0.00
   5.000   20.10   -7.40    1.09   0.000   0.143   0.000    0.00
   5.050   19.84   -6.62    0.62   0.000   0.143   0.000    0.00
   5.100   19.88   -5.97    0.54   0.000   0.143   0.000    0.00
   5.150   19.48   -5.51    1.38   0.000   0.143   0.000    0.00
   5.200   19.36   -3.06    1.21   0.000   0.143   0.000    0.00
   5.250   19.77   -1.38    1.40   0.000   0.143   0.000    0.00
   5.300   20.42    0.36    1.33   0.000   0.143   0.000    0.00
   5.350   20.56    1.93    0.97   0.000   0.143   0.000    0.00
   5.400   20.64    0.77    0.87   0.000   0.143   0.000    0.00
   5.450   21.20   -0.52    0.91   0.000   0.143   0.000    0.00
   5.500   21.08    0.66    0.74   0.000   0.143   0.000    0.00
   5.550   20.52    0.58    0.81   0.000   0.143   0.000    0.00
   5.600   20.66    1.10    0.35   0.000   0.143   0.000    0.00
   5.650   20.18    1.45    0.85   0.000   0.143   0.000    0.00
   5.700   20.12   -1.26    1.28   0.000   0.143   0.000    0.00
   5.750   20.11   -1.16    1.53   0.000   0.143   0.000    0.00
   5.800   19.79   -1.09    0.64   0.000   0.143   0.000    0.00
   5.850   19.63    0.17    0.62   0.000   0.143   0.000    0.00
   5.900   19.59    1.92    0.63   0.000   0.143   0.000    0.00
   5.950   19.37    1.79    0.54   0.000   0.143   0.000    0.00
   6.000   19.02    0.50    0.42   0.000   0.143   0.000    0.00
   6.050   19.18    0.80   -0.03   0.000   0.143   0.000    0.00
   6.100   19.12   -1.23   -0.19   0.000   0.143   0.000    0.00
   6.150   18.98   -0.62    0.09   0.000   0.143   0.000    0.00
   6.200   18.89   -1.26    0.08   0.000   0.143   0.000    0.00
   6.250   19.41   -0.89   -0.69   0.000   0.143   0.000    0.00
   6.300   19.54    1.19   -1.01   0.000   0.143   0.000    0.00
   6.350   19.35    0.25   -1.67   0.000   0.143   0.000    0.00
   6.400   19.12    0.88   -1.38   0.000   0.143   0.000    0.00
   6.450   18.82    3.62   -1.33   0.000   0.143   0.000    0.00
   6.500   18.49    2.75   -1.19   0.000   0.143   0.000    0.00
   6.550   18.87    3.39   -0.85   0.000   0.143   0.000    0.00
   6.600   18.72    4.04   -0.49   0.000   0.143   0.000    0.00
   6.650   18.51    4.05    0.01   0.000   0.143   0.000    0.00
   6.700   18.48    3.71   -0.21   0.000   0.143   0.000    0.00
   6.750   18.59    4.98    0.17   0.000   0.143   0.000    0.00
   6.800   18.03    3.15   -0.37   0.000   0.143   0.000    0.00
   6.850   17.97    5.00   -0.62   0.000   0.143   0.000    0.00
   6.900   18.64    6.24   -0.77   0.000   0.143   0.000    0.00
   6.950   18.87    6.62   -0.66   0.000   0.143   0.000    0.00
   7.000   18.67    5.97   -1.42   0.000   0.143   0.000    0.00
   7.050   18.65    7.66   -1.57   0.000   0.143   0.000    0.00
   7.100   18.43    6.53   -1.20   0.000   0.143   0.000    0.00
   7.150   18.91    4.87   -1.17   0.000   0.143   0.000    0.00
   7.200   19.48    7.58   -1.62   0.000   0.143   0.000    0.00
   7.250   19.25    9.84   -1.50   0.000   0.143   0.000    0.00
   7.300   18.83   10.34   -1.33   0.000   0.143   0.000    0.00
   7.350   18.67    8.55   -1.45   0.000   0.143   0.000    0.00
   7.400   18.86    7.27   -1.47   0.000   0.143   0.000    0.00
   7.450   18.48    5.79   -0.86   0.000   0.143   0.000    0.00
   7.500   18.37    5.64   -1.45   0.000   0.143   0.000    0.00
   7.550   18.92    7.34   -1.82   0.000   0.143   0.000    0.00
   7.600   18.95    5.90   -1.22   0.000   0.143   0.000    0.00
   7.650   19.32    4.83   -1.68   0.000   0.143   0.000    0.00
   7.700   18.88    6.38   -1.17   0.000   0.143   0.000    0.00
   7.750   18.04    6.32   -0.49   0.000   0.143   0.000    0.00
   7.800   18.71    9.06   -0.74   0.000   0.143   0.000    0.00
   7.850   19.17    7.32   -0.23   0.000   0.143   0.000    0.00
   7.900   19.41    6.63   -0.32   0.000   0.143   0.000    0.00
   7.950   19.13    6.43    0.03   0.000   0.143   0.000    0.00
   8.000   18.69    7.04    0.00   0.000   0.143   0.000    0.00
   8.050   18.62    7.10   -0.24   0.000   0.143   0.000    0.00
   8.100   18.87    5.53   -0.45   0.000   0.143   0.000    0.00
   8.150   18.46    2.74    0.02   0.000   0.143   0.000    0.00
   8.200   18.87    2.95   -0.26   0.000   0.143   0.000    0.00
   8.250   18.73    5.41   -0.36   0.000   0.143   0.000    0.00
   8.300   18.25    6.03   -0.16   0.000   0.143   0.000    0.00
   8.350   18.63    8.84    0.27   0.000   0.143   0.000    0.00
   8.400   18.76    8.18    0.15   0.000   0.143   0.000    0.00
   8.450   19.52    8.33    0.10   0.000   0.143   0.000    0.00
   8.500   19.00    9.35    0.09   0.000   0.143   0.000    0.00
   8.550   18.89    9.68   -0.33   0.000   0.143   0.000    0.00
   8.600   18.96    8.68    0.26   0.000   0.143   0.000    0.00
   8.650   19.11    9.56    0.44   0.000   0.143   0.000    0.00
   8.700   18.40    7.15    0.50   0.000   0.143   0.000    0.00
   8.750   17.46    5.83    0.26   0.000   0.143   0.000    0.00
   8.800   16.89    6.79    1.24   0.000   0.143   0.000    0.00
   8.850   17.30    7.16    1.76   0.000   0.143   0.000    0.00
   8.900   17.46    8.50    0.66   0.000   0.143   0.000    0.00
   8.950   17.45    9.62    0.49   0.000   0.143   0.000    0.00
   9.000   17.68   10.92    0.29   0.000   0.143   0.000    0.00
   9.050   17.66    9.95    0.24   0.000   0.143   0.000    0.00
   9.100   17.60   10.50    0.55   0.000   0.143   0.000    0.00
   9.150   17.55   10.06    0.33   0.000   0.143   0.000    0.00
   9.200   17.62    7.71    0.55   0.000   0.143   0.000    0.00
   9.250   17.95    6.46   -0.03   0.000   0.143   0.000    0.00
   9.300   18.26    5.20    0.49   0.000   0.143   0.000    0.00
   9.350   17.89    4.00    0.51   0.000   0.143   0.000    0.00
   9.400   17.75    3.17    0.33   0.000   0.143   0.000    0.00
   9.450   17.69    2.19    0.57   0.000   0.143   0.000    0.00
   9.500   17.89    3.16    0.71   0.000   0.143   0.000    0.00
   9.550   18.16    2.44    0.94   0.000   0.143   0.000    0.00
   9.600   17.90    3.14    0.47   0.000   0.143   0.000    0.00
   9.650   17.76    2.63    1.18   0.000   0.143   0.000    0.00
   9.700   18.04    2.46    1.11   0.000   0.143   0.000    0.00
   9.750   18.76    2.17    0.84   0.000   0.143   0.000    0.00
   9.800   18.89    3.55    1.05   0.000   0.143   0.000    0.00
   9.850   18.79    4.41    0.55   0.000   0.143   0.000    0.00
   9.900   18.49    3.06    0.15   0.000   0.143   0.000    0.00
   9.950   18.52    4.48    0.42   0.000   0.143   0.000    0.00
  10.000   17.78    7.33    1.17   0.000   0.143   0.000    0.00
  10.050   18.34    7.87    1.65   0.000   0.143   0.000    0.00
  10.100   18.61    5.42    0.51   0.000   0.143   0.000    0.00
  10.150   18.20    3.64    1.09   0.000   0.143   0.000    0.00
  10.200   18.07    4.06    1.27   0.000   0.143   0.000    0.00
  10.250   17.78    1.99    1.71   0.000   0.143   0.000    0.00
  10.300   17.69    0.06    1.68   0.000   0.143   0.000    0.00
  10.350   17.70    1.55    1.18   0.000   0.143   0.000    0.00
  10.400   17.57    4.37    0.74   0.000   0.143   0.000    0.00
  10.450   17.38    5.15    1.05   0.000   0.143   0.000    0.00
  10.500   17.37    3.96    1.09   0.000   0.143   0.000    0.00
  10.550   17.78    2.22    0.60   0.000   0.143   0.000    0.00
  10.600   17.32    1.96    0.28   0.000   0.143   0.000    0.00
  10.650   17.27    1.53    0.20   0.000   0.143   0.000    0.00
  10.700   17.21    2.46    0.04   0.000   0.143   0.000    0.00
  10.750   17.61    3.00    0.13   0.000   0.143   0.000    0.00
  10.800   17.23    1.66    0.42   0.000   0.143   0.000    0.00
  10.850   17.10    2.45    0.28   0.000   0.143   0.000    0.00
  10.900   17.27    3.52    0.30   0.000   0.143   0.000    0.00
  10.950   17.16    5.12   -0.14   0.000   0.143   0.000    0.00
  11.000   17.54    3.10   -0.68   0.000   0.143   0.000    0.00
  11.050   17.67    4.29   -1.47   0.000   0.143   0.000    0.00
  11.100   17.33    3.15   -1.37   0.000   0.143   0.000    0.00
  11.150   17.16    3.85   -1.42   0.000   0.143   0.000    0.00
  11.200   17.22    3.88   -0.90   0.000   0.143   0.000    0.00
  11.250   17.32    2.10   -0.13   0.000   0.143   0.000    0.00
  11.300   16.74    4.18    0.91   0.000   0.143   0.000    0.00
  11.350   16.76    3.22    0.69   0.000   0.143   0.000    0.00
  11.400   16.55    4.72    0.30   0.000   0.143   0.000    0.00
  11.450   16.97    5.07    0.04   0.000   0.143   0.000    0.00
  11.500   16.78    3.71   -0.33   0.000   0.143   0.000    0.00
  11.550   16.84    0.89   -0.97   0.000   0.143   0.000    0.00
  11.600   16.93   -0.71   -0.89   0.000   0.143   0.000    0.00
  11.650   16.93    0.04   -0.78   0.000   0.143   0.000    0.00
  11.700   17.15    2.56   -0.80   0.000   0.143   0.000    0.00
  11.750   17.18    3.84   -1.14   0.000   0.143   0.000    0.00
  11.800   17.08    1.59   -0.60   0.000   0.143   0.000    0.00
  11.850   17.26    3.57    0.11   0.000   0.143   0.000    0.00
  11.900   17.00    3.08   -0.87   0.000   0.143   0.000    0.00
  11.950   16.83    3.57   -0.74   0.000   0.143   0.000    0.00
  12.000   17.25    0.36   -0.53   0.000   0.143   0.000    0.00
  12.050   17.63    0.96   -0.66   0.000   0.143   0.000    0.00
  12.100   17.15    2.91   -0.60   0.000   0.143   0.000    0.00
  12.150   17.47    1.42   -0.84   0.000   0.143   0.000    0.00
  12.200   17.62    1.31   -0.74   0.000   0.143   0.000    0.00
  12.250   17.38    0.87   -0.64   0.000   0.143   0.000    0.00
  12.300   17.64   -0.54   -0.70   0.000   0.143   0.000    0.00
  12.350   17.70   -0.06    0.06   0.000   0.143   0.000    0.00
  12.400   18.27   -0.99   -0.18   0.000   0.143   0.000    0.00
  12.450   18.72   -1.42    0.22   0.000   0.143   0.000    0.00
  12.500   18.32   -0.44    0.51   0.000   0.143   0.000    0.00
  12.550   18.67    0.74    0.77   0.000   0.143   0.000    0.00
  12.600   18.87    1.44    0.88   0.000   0.143   0.000    0.00
  12.650   18.60    2.30    0.94   0.000   0.143   0.000    0.00
  12.700   18.18    2.97    0.04   0.000   0.143   0.000    0.00
  12.750   18.52    4.50    0.33   0.000   0.143   0.000    0.00
  12.800   18.43    5.02    0.06   0.000   0.143   0.000    0.00
  12.850   18.40    4.41    0.00   0.000   0.143   0.000    0.00
  12.900   17.79    2.66   -0.36   0.000   0.143   0.000    0.00
  12.950   17.90    3.39   -0.59   0.000   0.143   0.000    0.00
  13.000   18.24    2.57   -0.89   0.000   0.143   0.000    0.00
  13.050   18.63    2.81   -1.56   0.000   0.143   0.000    0.00
  13.100   18.36    2.80   -1.71   0.000   0.143   0.000    0.00
  13.150   18.11    1.16   -1.83   0.000   0.143   0.000    0.00
  13.200   18.50    2.04   -1.91   0.000   0.143   0.000    0.00
  13.250   18.53    2.27   -1.28   0.000   0.143   0.000    0.00
  13.300   18.37    0.85   -1.45   0.000   0.143   0.000    0.00
  13.350   18.70    0.22   -1.98   0.000   0.143   0.000    0.00
  13.400   18.87    0.67   -2.05   0.000   0.143   0.000    0.00
  13.450   18.41   -0.54   -1.82   0.000   0.143   0.000    0.00
  13.500   18.38   -1.49   -1.56   0.000   0.143   0.000    0.00
  13.550   17.74   -2.61   -1.55   0.000   0.143   0.000    0.00
  13.600   17.90   -1.21   -0.99   0.000   0.143   0.000    0.00
  13.650   17.51   -1.24   -0.24   0.000   0.143   0.000    0.00
  13.700   18.23   -1.77   -0.65   0.000   0.143   0.000    0.00
  13.750   18.36   -1.46   -0.78   0.000   0.143   0.000    0.00
  13.800   18.62   -0.50   -0.66   0.000   0.143   0.000    0.00
  13.850   18.55   -3.07   -0.63   0.000   0.143   0.000    0.00
  13.900   18.62   -3.86   -0.40   0.000   0.143   0.000    0.00
  13.950   18.81   -2.58   -0.15   0.000   0.143   0.000    0.00
  14.000   18.76   -4.71    0.14   0.000   0.143   0.000    0.00
  14.050   18.42   -2.34   -0.74   0.000   0.143   0.000    0.00
  14.100   18.13   -1.38   -0.43   0.000   0.143   0.000    0.00
  14.150   17.92   -0.84   -0.95   0.000   0.143   0.000    0.00
  14.200   18.13   -1.64   -0.77   0.000   0.143   0.000    0.00
  14.250   18.60   -2.48   -0.73   0.000   0.143   0.000    0.00
  14.300   18.58   -1.40    0.08   0.000   0.143   0.000    0.00
  14.350   18.09   -0.97    0.66   0.000   0.143   0.000    0.00
  14.400   18.15   -0.60    0.12   0.000   0.143   0.000    0.00
  14.450   18.00   -0.34    0.53   0.000   0.143   0.000    0.00
  14.500   17.96    1.18    1.13   0.000   0.143   0.000    0.00
  14.550   17.68   -0.20    1.15   0.000   0.143   0.000    0.00
  14.600   17.49    1.32    0.67   0.000   0.143   0.000    0.00
  14.650   17.98    2.30    0.10   0.000   0.143   0.000    0.00
  14.700   18.52   -0.05    0.06   0.000   0.143   0.000    0.00
  14.750   18.92    1.33    0.04   0.000   0.143   0.000    0.00
  14.800   19.17    0.33   -0.54   0.000   0.143   0.000    0.00
  14.850   19.46   -1.32   -1.19   0.000   0.143   0.000    0.00
  14.900   19.50   -2.20   -0.96   0.000   0.143   0.000    0.00
  14.950   19.19   -3.62   -0.35   0.000   0.143   0.000    0.00
  15.000   19.00   -4.02   -1.03   0.000   0.143   0.000    0.00
  15.050   19.29   -2.02   -1.31   0.000   0.143   0.000    0.00
  15.100   19.63   -2.17   -0.60   0.000   0.143   0.000    0.00
  15.150   18.77   -3.30   -0.08   0.000   0.143   0.000    0.00
  15.200   19.07   -5.14   -0.12   0.000   0.143   0.000    0.00
  15.250   19.62   -6.45    0.14   0.000   0.143   0.000    0.00
  15.300   19.85   -7.00    0.27   0.000   0.143   0.000    0.00
  15.350   20.02   -6.51    0.21   0.000   0.143   0.000    0.00
  15.400   20.35   -5.67    0.06   0.000   0.143   0.000    0.00
  15.450   20.21   -8.35    0.14   0.000   0.143   0.000    0.00
  15.500   19.70   -7.90   -0.06   0.000   0.143   0.000    0.00
  15.550   19.22   -7.60   -0.63   0.000   0.143   0.000    0.00
  15.600   19.06   -7.24   -0.64   0.000   0.143   0.000    0.00
  15.650   19.03   -6.87   -0.96   0.000   0.143   0.000    0.00
  15.700   19.09   -5.50   -0.76   0.000   0.143   0.000    0.00
  15.750   19.04   -4.60   -0.89   0.000   0.143   0.000    0.00
  15.800   19.40   -5.70   -1.37   0.000   0.143   0.000    0.00
  15.850   20.00   -5.74   -1.26   0.000   0.143   0.000    0.00
  15.900   19.70   -6.80   -1.73   0.000   0.143   0.000    0.00
  15.950   19.55   -6.84   -1.42   0.000   0.143   0.000    0.00
  16.000   19.57   -6.85   -0.66   0.000   0.143   0.000    0.00
  16.050   19.38   -5.39   -0.85   0.000   0.143   0.000    0.00
  16.100   19.40   -7.35   -0.75   0.000   0.143   0.000    0.00
  16.150   19.53   -5.53   -0.84   0.000   0.143   0.000    0.00
  16.200   19.52   -7.28   -1.08   0.000   0.143   0.000    0.00
  16.250   19.13   -8.85   -0.70   0.000   0.143   0.000    0.00
  16.300   19.03   -8.04   -0.83   0.000   0.143   0.000    0.00
  16.350   19.10   -7.87   -0.73   0.000   0.143   0.000    0.00
  16.400   19.24   -9.29   -0.87   0.000   0.143   0.000    0.00
  16.450   19.21   -9.49   -1.18   0.000   0.143   0.000    0.00
  16.500   18.88  -10.10   -1.18   0.000   0.143   0.000    0.00
  16.550   18.44  -10.10   -1.53   0.000   0.143   0.000    0.00
  16.600   17.86   -9.17   -1.02   0.000   0.143   0.000    0.00
  16.650   17.97   -9.87   -0.36   0.000   0.143   0.000    0.00
  16.700   17.89   -8.31   -0.48   0.000   0.143   0.000    0.00
  16.750   18.09   -8.97   -0.88   0.000   0.143   0.000    0.00
  16.800   18.60   -8.94   -1.20   0.000   0.143   0.000    0.00
  16.850   19.21   -8.63   -1.01   0.000   0.143   0.000    0.00
  16.900   19.33   -8.49   -0.97   0.000   0.143   0.000    0.00
  16.950   18.68   -7.54   -1.46   0.000   0.143   0.000    0.00
  17.000   18.66   -7.08   -1.10   0.000   0.143   0.000    0.00
  17.050   18.37   -7.10   -1.45   0.000   0.143   0.000    0.00
  17.100   18.29   -6.29   -0.66   0.000   0.143   0.000    0.00
  17.150   17.71   -6.00   -0.42   0.000   0.143   0.000    0.00
  17.200   17.96   -6.15   -0.40   0.000   0.143   0.000    0.00
  17.250   18.00   -1.46   -0.17   0.000   0.143   0.000    0.00
  17.300   17.76   -1.82    0.49   0.000   0.143   0.000    0.00
  17.350   17.69   -2.06    0.50   0.000   0.143   0.000    0.00
  17.400   17.76   -1.12    0.09   0.000   0.143   0.000    0.00
  17.450   18.44   -0.63   -0.36   0.000   0.143   0.000    0.00
  17.500   18.31   -0.77    0.07   0.000   0.143   0.000    0.00
  17.550   17.63    1.24   -0.08   0.000   0.143   0.000    0.00
  17.600   17.56    1.64    0.16   0.000   0.143   0.000    0.00
  17.650   17.33   -0.48    0.37   0.000   0.143   0.000    0.00
  17.700   16.89    0.85    0.57   0.000   0.143   0.000    0.00
  17.750   17.20    1.77    0.49   0.000   0.143   0.000    0.00
  17.800   16.99    1.46    0.38   0.000   0.143   0.000    0.00
  17.850   17.06    1.67   -0.33   0.000   0.143   0.000    0.00
  17.900   17.72    1.01   -0.73   0.000   0.143   0.000    0.00
  17.950   17.65    3.58   -0.34   0.000   0.143   0.000    0.00
  18.000   18.02    2.94   -0.90   0.000   0.143   0.000    0.00
  18.050   18.02    2.59   -1.07   0.000   0.143   0.000    0.00
  18.100   18.57    1.16   -0.62   0.000   0.143   0.000    0.00
  18.150   19.04   -0.69   -0.26   0.000   0.143   0.000    0.00
  18.200   18.99   -3.79   -0.21   0.000   0.143   0.000    0.00
  18.250   19.12   -2.97   -0.14   0.000   0.143   0.000    0.00
  18.300   19.14   -1.21   -0.44   0.000   0.143   0.000    0.00
  18.350   19.57    0.58   -0.26   0.000   0.143   0.000    0.00
  18.400   19.50    0.34   -0.65   0.000   0.143   0.000    0.00
  18.450   19.71    2.28    0.10   0.000   0.143   0.000    0.00
  18.500   19.79    3.05    0.47   0.000   0.143   0.000    0.00
  18.550   20.06    3.74   -0.73   0.000   0.143   0.000    0.00
  18.600   20.66    4.41   -1.58   0.000   0.143   0.000    0.00
  18.650   20.21    2.09   -2.11   0.000   0.143   0.000    0.00
  18.700   20.05    3.62   -1.64   0.000   0.143   0.000    0.00
  18.750   20.23    5.13   -1.61   0.000   0.143   0.000    0.00
  18.800   20.52    5.96   -2.20   0.000   0.143   0.000    0.00
  18.850   20.57    5.47   -1.64   0.000   0.143   0.000    0.00
  18.900   20.06    5.84   -1.66   0.000   0.143   0.000    0.00
  18.950   20.12    7.46   -2.02   0.000   0.143   0.000    0.00
  19.000   20.39    6.97   -2.43   0.000   0.143   0.000    0.00
  19.050   20.78    5.47   -2.45   0.000   0.143   0.000    0.00
  19.100   20.57    4.13   -2.21   0.000   0.143   0.000    0.00
  19.150   20.51    4.25   -2.52   0.000   0.143   0.000    0.00
  19.200   21.03    3.49   -2.82   0.000   0.143   0.000    0.00
  19.250   21.46    3.14   -2.35   0.000   0.143   0.000    0.00
  19.300   21.92    3.01   -2.84   0.000   0.143   0.000    0.00
  19.350   21.73    3.12   -2.74   0.000   0.143   0.000    0.00
  19.400   21.90    1.95   -2.49   0.000   0.143   0.000    0.00
  19.450   21.72    1.57   -3.02   0.000   0.143   0.000    0.00
  19.500   21.16    4.15   -3.25   0.000   0.143   0.000    0.00
  19.550   21.64    4.68   -3.14   0.000   0.143   0.000    0.00
  19.600   21.90    4.25   -2.78   0.000   0.143   0.000    0.00
  19.650   21.98    4.31   -2.82   0.000   0.143   0.000    0.00
  19.700   21.82    4.47   -2.20   0.000   0.143   0.000    0.00
  19.750   21.66    6.11   -2.12   0.000   0.143   0.000    0.00
  19.800   21.71    5.73   -1.44   0.000   0.143   0.000    0.00
  19.850   21.59    5.64   -1.53   0.000   0.143   0.000    0.00
  19.900   21.40    4.56   -1.68   0.000   0.143   0.000    0.00
  19.950   20.87    2.96   -1.73   0.000   0.143   0.000    0.00
  20.000   20.33    2.81   -2.48   0.000   0.143   0.000    0.00
  20.050   20.07    2.39   -2.90   0.000   0.143   0.000    0.00
  20.100   19.84    2.16   -2.91   0.000   0.143   0.000    0.00
  20.150   19.90    2.13   -3.55   0.000   0.143   0.000    0.00
  20.200   19.94    4.02   -3.62   0.000   0.143   0.000    0.00
  20.250   20.21    3.21   -3.06   0.000   0.143   0.000    0.00
  20.300   20.35    2.49   -2.94   0.000   0.143   0.000    0.00
  20.350   20.46    3.02   -3.02   0.000   0.143   0.000    0.00
  20.400   19.55    1.80   -2.53   0.000   0.143   0.000    0.00
  20.450   19.75    1.39   -2.27   0.000   0.143   0.000    0.00
  20.500   18.88    0.87   -1.76   0.000   0.143   0.000    0.00
  20.550   18.42   -0.47   -2.25   0.000   0.143   0.000    0.00
  20.600   18.72   -2.18   -2.53   0.000   0.143   0.000    0.00
  20.650   18.83   -2.89   -2.63   0.000   0.143   0.000    0.00
  20.700   18.85   -1.92   -2.18   0.000   0.143   0.000    0.00
  20.750   18.79   -3.24   -2.57   0.000   0.143   0.000    0.00
  20.800   18.39   -3.17   -2.53   0.000   0.143   0.000    0.00
  20.850   18.64   -2.47   -2.59   0.000   0.143   0.000    0.00
  20.900   18.34   -0.97   -2.45   0.000   0.143   0.000    0.00
  20.950   18.32    0.46   -2.48   0.000   0.143   0.000    0.00
  21.000   18.14    0.95   -2.24   0.000   0.143   0.000    0.00
  21.050   18.16    1.27   -1.66   0.000   0.143   0.000    0.00
  21.100   17.56    4.23   -1.55   0.000   0.143   0.000    0.00
  21.150   18.00    6.26   -1.75   0.000   0.143   0.000    0.00
  21.200   18.06    7.11   -1.33   0.000   0.143   0.000    0.00
  21.250   18.36    7.75   -0.74   0.000   0.143   0.000    0.00
  21.300   18.20    9.46   -1.10   0.000   0.143   0.000    0.00
  21.350   17.76    9.70   -1.63   0.000   0.143   0.000    0.00
  21.400   17.90    7.43   -1.80   0.000   0.143   0.000    0.00
  21.450   18.45    4.46   -2.78   0.000   0.143   0.000    0.00
  21.500   18.32    2.88   -2.85   0.000   0.143   0.000    0.00
  21.550   18.01    3.11   -2.36   0.000   0.143   0.000    0.00
  21.600   17.27    3.03   -2.48   0.000   0.143   0.000    0.00
  21.650   17.52    3.23   -2.54   0.000   0.143   0.000    0.00
  21.700   17.89    2.91   -1.85   0.000   0.143   0.000    0.00
  21.750   18.23    4.44   -2.03   0.000   0.143   0.000    0.00
  21.800   18.00    5.15   -1.94   0.000   0.143   0.000    0.00
  21.850   17.64    5.32   -1.26   0.000   0.143   0.000    0.00
  21.900   17.86    5.15   -1.53   0.000   0.143   0.000    0.00
  21.950   17.54    6.55   -1.22   0.000   0.143   0.000    0.00
  22.000   17.74    6.77   -1.29   0.000   0.143   0.000    0.00
  22.050   17.77    7.39   -1.47   0.000   0.143   0.000    0.00
  22.100   17.30    8.14   -1.27   0.000   0.143   0.000    0.00
  22.150   17.65    7.31   -0.46   0.000   0.143   0.000    0.00
  22.200   17.53    7.32   -0.73   0.000   0.143   0.000    0.00
  22.250   17.23    7.20   -0.81   0.000   0.143   0.000    0.00
  22.300   17.40    7.70   -0.70   0.000   0.143   0.000    0.00
  22.350   17.98    6.65   -0.32   0.000   0.143   0.000    0.00
  22.400   17.99    6.95   -0.28   0.000   0.143   0.000    0.00